data/topology/ieee39/ybus_full_complex.csv
from_bus,to_bus,real,imag,abs,angle_rad
1,1,3.6544516114373526,-63.608126078791,63.71301844863191,-1.5134068247054717
1,2,-2.0570202939932845,24.27254806343292,24.35955504481889,1.6553410924738359
1,3,0.0,0.0,0.0,0.0
1,4,0.0,0.0,0.0,0.0
1,5,0.0,0.0,0.0,0.0
1,6,0.0,0.0,0.0,0.0
1,7,0.0,0.0,0.0,0.0
1,8,0.0,0.0,0.0,0.0
1,9,0.0,0.0,0.0,0.0
1,10,0.0,0.0,0.0,0.0
1,11,0.0,0.0,0.0,0.0
1,12,0.0,0.0,0.0,0.0
1,13,0.0,0.0,0.0,0.0
1,14,0.0,0.0,0.0,0.0
1,15,0.0,0.0,0.0,0.0
1,16,0.0,0.0,0.0,0.0
1,17,0.0,0.0,0.0,0.0
1,18,0.0,0.0,0.0,0.0
1,19,0.0,0.0,0.0,0.0
1,20,0.0,0.0,0.0,0.0
1,21,0.0,0.0,0.0,0.0
1,22,0.0,0.0,0.0,0.0
1,23,0.0,0.0,0.0,0.0
1,24,0.0,0.0,0.0,0.0
1,25,0.0,0.0,0.0,0.0
1,26,0.0,0.0,0.0,0.0
1,27,0.0,0.0,0.0,0.0
1,28,0.0,0.0,0.0,0.0
1,29,0.0,0.0,0.0,0.0
1,30,0.0,0.0,0.0,0.0
1,31,0.0,0.0,0.0,0.0
1,32,0.0,0.0,0.0,0.0
1,33,0.0,0.0,0.0,0.0
1,34,0.0,0.0,0.0,0.0
1,35,0.0,0.0,0.0,0.0
1,36,0.0,0.0,0.0,0.0
1,37,0.0,0.0,0.0,0.0
1,38,0.0,0.0,0.0,0.0
1,39,-1.5974313174440682,40.061353935172576,40.093189769998574,1.61064983489032
2,1,-2.0570202939932845,24.27254806343292,24.35955504481889,1.6553410924738359
2,2,64.64547230243751,-212.05353961179003,221.6883865950001,-1.2748918495878356
2,3,-5.659527354569749,65.78065006122772,66.02366373017195,1.6566213319267435
2,4,0.0,0.0,0.0,0.0
2,5,0.0,0.0,0.0,0.0
2,6,0.0,0.0,0.0,0.0
2,7,0.0,0.0,0.0,0.0
2,8,0.0,0.0,0.0,0.0
2,9,0.0,0.0,0.0,0.0
2,10,0.0,0.0,0.0,0.0
2,11,0.0,0.0,0.0,0.0
2,12,0.0,0.0,0.0,0.0
2,13,0.0,0.0,0.0,0.0
2,14,0.0,0.0,0.0,0.0
2,15,0.0,0.0,0.0,0.0
2,16,0.0,0.0,0.0,0.0
2,17,0.0,0.0,0.0,0.0
2,18,0.0,0.0,0.0,0.0
2,19,0.0,0.0,0.0,0.0
2,20,0.0,0.0,0.0,0.0
2,21,0.0,0.0,0.0,0.0
2,22,0.0,0.0,0.0,0.0
2,23,0.0,0.0,0.0,0.0
2,24,0.0,0.0,0.0,0.0
2,25,-56.928924653874475,69.96574918018858,90.20037982509595,2.253816315497259
2,26,0.0,0.0,0.0,0.0
2,27,0.0,0.0,0.0,0.0
2,28,0.0,0.0,0.0,0.0
2,29,0.0,0.0,0.0,0.0
2,30,-26.950545748551402,46.67971452820044,53.90109149710282,2.0943951023931953
2,31,0.0,0.0,0.0,0.0
2,32,0.0,0.0,0.0,0.0
2,33,0.0,0.0,0.0,0.0
2,34,0.0,0.0,0.0,0.0
2,35,0.0,0.0,0.0,0.0
2,36,0.0,0.0,0.0,0.0
2,37,0.0,0.0,0.0,0.0
2,38,0.0,0.0,0.0,0.0
2,39,0.0,0.0,0.0,0.0
3,1,0.0,0.0,0.0,0.0
3,2,-5.659527354569749,65.78065006122772,66.02366373017195,1.6566213319267435
3,3,14.690541486717235,-186.9578664140998,187.53414575294107,-1.4923806995087763
3,4,-2.854747418071517,46.810961423220796,46.897928442387,1.6317054847747159
3,5,0.0,0.0,0.0,0.0
3,6,0.0,0.0,0.0,0.0
3,7,0.0,0.0,0.0,0.0
3,8,0.0,0.0,0.0,0.0
3,9,0.0,0.0,0.0,0.0
3,10,0.0,0.0,0.0,0.0
3,11,0.0,0.0,0.0,0.0
3,12,0.0,0.0,0.0,0.0
3,13,0.0,0.0,0.0,0.0
3,14,0.0,0.0,0.0,0.0
3,15,0.0,0.0,0.0,0.0
3,16,0.0,0.0,0.0,0.0
3,17,0.0,0.0,0.0,0.0
3,18,-6.17626671407597,74.71256626125229,74.96741844204999,1.653275824222954
3,19,0.0,0.0,0.0,0.0
3,20,0.0,0.0,0.0,0.0
3,21,0.0,0.0,0.0,0.0
3,22,0.0,0.0,0.0,0.0
3,23,0.0,0.0,0.0,0.0
3,24,0.0,0.0,0.0,0.0
3,25,0.0,0.0,0.0,0.0
3,26,0.0,0.0,0.0,0.0
3,27,0.0,0.0,0.0,0.0
3,28,0.0,0.0,0.0,0.0
3,29,0.0,0.0,0.0,0.0
3,30,0.0,0.0,0.0,0.0
3,31,0.0,0.0,0.0,0.0
3,32,0.0,0.0,0.0,0.0
3,33,0.0,0.0,0.0,0.0
3,34,0.0,0.0,0.0,0.0
3,35,0.0,0.0,0.0,0.0
3,36,0.0,0.0,0.0,0.0
3,37,0.0,0.0,0.0,0.0
3,38,0.0,0.0,0.0,0.0
3,39,0.0,0.0,0.0,0.0
4,1,0.0,0.0,0.0,0.0
4,2,0.0,0.0,0.0,0.0
4,3,-2.854747418071517,46.810961423220796,46.897928442387,1.6317054847747159
4,4,12.507502301232783,-201.6524632338922,202.03998005867945,-1.508850641657263
4,5,-4.863775803808372,77.84308690933949,77.99488761864264,1.633197002675619
4,6,0.0,0.0,0.0,0.0
4,7,0.0,0.0,0.0,0.0
4,8,0.0,0.0,0.0,0.0
4,9,0.0,0.0,0.0,0.0
4,10,0.0,0.0,0.0,0.0
4,11,0.0,0.0,0.0,0.0
4,12,0.0,0.0,0.0,0.0
4,13,0.0,0.0,0.0,0.0
4,14,-4.7889790793528935,77.24537879536291,77.39368750655044,1.6327140439099472
4,15,0.0,0.0,0.0,0.0
4,16,0.0,0.0,0.0,0.0
4,17,0.0,0.0,0.0,0.0
4,18,0.0,0.0,0.0,0.0
4,19,0.0,0.0,0.0,0.0
4,20,0.0,0.0,0.0,0.0
4,21,0.0,0.0,0.0,0.0
4,22,0.0,0.0,0.0,0.0
4,23,0.0,0.0,0.0,0.0
4,24,0.0,0.0,0.0,0.0
4,25,0.0,0.0,0.0,0.0
4,26,0.0,0.0,0.0,0.0
4,27,0.0,0.0,0.0,0.0
4,28,0.0,0.0,0.0,0.0
4,29,0.0,0.0,0.0,0.0
4,30,0.0,0.0,0.0,0.0
4,31,0.0,0.0,0.0,0.0
4,32,0.0,0.0,0.0,0.0
4,33,0.0,0.0,0.0,0.0
4,34,0.0,0.0,0.0,0.0
4,35,0.0,0.0,0.0,0.0
4,36,0.0,0.0,0.0,0.0
4,37,0.0,0.0,0.0,0.0
4,38,0.0,0.0,0.0,0.0
4,39,0.0,0.0,0.0,0.0
5,1,0.0,0.0,0.0,0.0
5,2,0.0,0.0,0.0,0.0
5,3,0.0,0.0,0.0,0.0
5,4,-4.863775803808372,77.84308690933949,77.99488761864264,1.633197002675619
5,5,40.62150693489677,-548.9028454483165,550.4038885826665,-1.4969260738505472
5,6,-29.41252718830641,382.365100943714,383.4946768539291,1.6475677685798078
5,7,0.0,0.0,0.0,0.0
5,8,-6.345203942781996,88.85727739330298,89.08354145871104,1.6420842592482472
5,9,0.0,0.0,0.0,0.0
5,10,0.0,0.0,0.0,0.0
5,11,0.0,0.0,0.0,0.0
5,12,0.0,0.0,0.0,0.0
5,13,0.0,0.0,0.0,0.0
5,14,0.0,0.0,0.0,0.0
5,15,0.0,0.0,0.0,0.0
5,16,0.0,0.0,0.0,0.0
5,17,0.0,0.0,0.0,0.0
5,18,0.0,0.0,0.0,0.0
5,19,0.0,0.0,0.0,0.0
5,20,0.0,0.0,0.0,0.0
5,21,0.0,0.0,0.0,0.0
5,22,0.0,0.0,0.0,0.0
5,23,0.0,0.0,0.0,0.0
5,24,0.0,0.0,0.0,0.0
5,25,0.0,0.0,0.0,0.0
5,26,0.0,0.0,0.0,0.0
5,27,0.0,0.0,0.0,0.0
5,28,0.0,0.0,0.0,0.0
5,29,0.0,0.0,0.0,0.0
5,30,0.0,0.0,0.0,0.0
5,31,0.0,0.0,0.0,0.0
5,32,0.0,0.0,0.0,0.0
5,33,0.0,0.0,0.0,0.0
5,34,0.0,0.0,0.0,0.0
5,35,0.0,0.0,0.0,0.0
5,36,0.0,0.0,0.0,0.0
5,37,0.0,0.0,0.0,0.0
5,38,0.0,0.0,0.0,0.0
5,39,0.0,0.0,0.0,0.0
6,1,0.0,0.0,0.0,0.0
6,2,0.0,0.0,0.0,0.0
6,3,0.0,0.0,0.0,0.0
6,4,0.0,0.0,0.0,0.0
6,5,-29.41252718830641,382.365100943714,383.4946768539291,1.6475677685798078
6,6,46.80655928746165,-646.5014675094776,648.1936450507972,-1.498522657697447
6,7,-7.058783628735433,108.25382632285717,108.48371923867944,1.635910005677716
6,8,0.0,0.0,0.0,0.0
6,9,0.0,0.0,0.0,0.0
6,10,0.0,0.0,0.0,0.0
6,11,-10.335248470419808,121.09265236115797,121.53290836973159,1.6559399032942588
6,12,0.0,0.0,0.0,0.0
6,13,0.0,0.0,0.0,0.0
6,14,0.0,0.0,0.0,0.0
6,15,0.0,0.0,0.0,0.0
6,16,0.0,0.0,0.0,0.0
6,17,0.0,0.0,0.0,0.0
6,18,0.0,0.0,0.0,0.0
6,19,0.0,0.0,0.0,0.0
6,20,0.0,0.0,0.0,0.0
6,21,0.0,0.0,0.0,0.0
6,22,0.0,0.0,0.0,0.0
6,23,0.0,0.0,0.0,0.0
6,24,0.0,0.0,0.0,0.0
6,25,0.0,0.0,0.0,0.0
6,26,0.0,0.0,0.0,0.0
6,27,0.0,0.0,0.0,0.0
6,28,0.0,0.0,0.0,0.0
6,29,0.0,0.0,0.0,0.0
6,30,0.0,0.0,0.0,0.0
6,31,-18.691588785046726,32.37478144988556,37.38317757009346,2.0943951023931953
6,32,0.0,0.0,0.0,0.0
6,33,0.0,0.0,0.0,0.0
6,34,0.0,0.0,0.0,0.0
6,35,0.0,0.0,0.0,0.0
6,36,0.0,0.0,0.0,0.0
6,37,0.0,0.0,0.0,0.0
6,38,0.0,0.0,0.0,0.0
6,39,0.0,0.0,0.0,0.0
7,1,0.0,0.0,0.0,0.0
7,2,0.0,0.0,0.0,0.0
7,3,0.0,0.0,0.0,0.0
7,4,0.0,0.0,0.0,0.0
7,5,0.0,0.0,0.0,0.0
7,6,-7.058783628735433,108.25382632285717,108.48371923867944,1.635910005677716
7,7,25.820701856661294,-323.93226739611305,324.95972443482515,-1.491254316942787
7,8,-18.76191822792586,215.77394709326538,216.58810175030084,1.657529910790727
7,9,0.0,0.0,0.0,0.0
7,10,0.0,0.0,0.0,0.0
7,11,0.0,0.0,0.0,0.0
7,12,0.0,0.0,0.0,0.0
7,13,0.0,0.0,0.0,0.0
7,14,0.0,0.0,0.0,0.0
7,15,0.0,0.0,0.0,0.0
7,16,0.0,0.0,0.0,0.0
7,17,0.0,0.0,0.0,0.0
7,18,0.0,0.0,0.0,0.0
7,19,0.0,0.0,0.0,0.0
7,20,0.0,0.0,0.0,0.0
7,21,0.0,0.0,0.0,0.0
7,22,0.0,0.0,0.0,0.0
7,23,0.0,0.0,0.0,0.0
7,24,0.0,0.0,0.0,0.0
7,25,0.0,0.0,0.0,0.0
7,26,0.0,0.0,0.0,0.0
7,27,0.0,0.0,0.0,0.0
7,28,0.0,0.0,0.0,0.0
7,29,0.0,0.0,0.0,0.0
7,30,0.0,0.0,0.0,0.0
7,31,0.0,0.0,0.0,0.0
7,32,0.0,0.0,0.0,0.0
7,33,0.0,0.0,0.0,0.0
7,34,0.0,0.0,0.0,0.0
7,35,0.0,0.0,0.0,0.0
7,36,0.0,0.0,0.0,0.0
7,37,0.0,0.0,0.0,0.0
7,38,0.0,0.0,0.0,0.0
7,39,0.0,0.0,0.0,0.0
8,1,0.0,0.0,0.0,0.0
8,2,0.0,0.0,0.0,0.0
8,3,0.0,0.0,0.0,0.0
8,4,0.0,0.0,0.0,0.0
8,5,-6.345203942781996,88.85727739330298,89.08354145871104,1.6420842592482472
8,6,0.0,0.0,0.0,0.0
8,7,-18.76191822792586,215.77394709326538,216.58810175030084,1.657529910790727
8,8,26.845615656162085,-331.8295573002752,332.9137158154572,-1.4900703188805944
8,9,-1.7384934854542282,27.50156292877938,27.556457013276923,1.6339266776610124
8,10,0.0,0.0,0.0,0.0
8,11,0.0,0.0,0.0,0.0
8,12,0.0,0.0,0.0,0.0
8,13,0.0,0.0,0.0,0.0
8,14,0.0,0.0,0.0,0.0
8,15,0.0,0.0,0.0,0.0
8,16,0.0,0.0,0.0,0.0
8,17,0.0,0.0,0.0,0.0
8,18,0.0,0.0,0.0,0.0
8,19,0.0,0.0,0.0,0.0
8,20,0.0,0.0,0.0,0.0
8,21,0.0,0.0,0.0,0.0
8,22,0.0,0.0,0.0,0.0
8,23,0.0,0.0,0.0,0.0
8,24,0.0,0.0,0.0,0.0
8,25,0.0,0.0,0.0,0.0
8,26,0.0,0.0,0.0,0.0
8,27,0.0,0.0,0.0,0.0
8,28,0.0,0.0,0.0,0.0
8,29,0.0,0.0,0.0,0.0
8,30,0.0,0.0,0.0,0.0
8,31,0.0,0.0,0.0,0.0
8,32,0.0,0.0,0.0,0.0
8,33,0.0,0.0,0.0,0.0
8,34,0.0,0.0,0.0,0.0
8,35,0.0,0.0,0.0,0.0
8,36,0.0,0.0,0.0,0.0
8,37,0.0,0.0,0.0,0.0
8,38,0.0,0.0,0.0,0.0
8,39,0.0,0.0,0.0,0.0
9,1,0.0,0.0,0.0,0.0
9,2,0.0,0.0,0.0,0.0
9,3,0.0,0.0,0.0,0.0
9,4,0.0,0.0,0.0,0.0
9,5,0.0,0.0,0.0,0.0
9,6,0.0,0.0,0.0,0.0
9,7,0.0,0.0,0.0,0.0
9,8,-1.7384934854542282,27.50156292877938,27.556457013276923,1.6339266776610124
9,9,3.335907595916847,-66.84642103948117,66.929606940995,-1.520933635418758
9,10,0.0,0.0,0.0,0.0
9,11,0.0,0.0,0.0,0.0
9,12,0.0,0.0,0.0,0.0
9,13,0.0,0.0,0.0,0.0
9,14,0.0,0.0,0.0,0.0
9,15,0.0,0.0,0.0,0.0
9,16,0.0,0.0,0.0,0.0
9,17,0.0,0.0,0.0,0.0
9,18,0.0,0.0,0.0,0.0
9,19,0.0,0.0,0.0,0.0
9,20,0.0,0.0,0.0,0.0
9,21,0.0,0.0,0.0,0.0
9,22,0.0,0.0,0.0,0.0
9,23,0.0,0.0,0.0,0.0
9,24,0.0,0.0,0.0,0.0
9,25,0.0,0.0,0.0,0.0
9,26,0.0,0.0,0.0,0.0
9,27,0.0,0.0,0.0,0.0
9,28,0.0,0.0,0.0,0.0
9,29,0.0,0.0,0.0,0.0
9,30,0.0,0.0,0.0,0.0
9,31,0.0,0.0,0.0,0.0
9,32,0.0,0.0,0.0,0.0
9,33,0.0,0.0,0.0,0.0
9,34,0.0,0.0,0.0,0.0
9,35,0.0,0.0,0.0,0.0
9,36,0.0,0.0,0.0,0.0
9,37,0.0,0.0,0.0,0.0
9,38,0.0,0.0,0.0,0.0
9,39,-1.597414110462619,40.1367820992028,40.16855746873656,1.610574590102832
10,1,0.0,0.0,0.0,0.0
10,2,0.0,0.0,0.0,0.0
10,3,0.0,0.0,0.0,0.0
10,4,0.0,0.0,0.0,0.0
10,5,0.0,0.0,0.0,0.0
10,6,0.0,0.0,0.0,0.0
10,7,0.0,0.0,0.0,0.0
10,8,0.0,0.0,0.0,0.0
10,9,0.0,0.0,0.0,0.0
10,10,42.89579238773043,-504.7512067074964,506.5706561549386,-1.4860160063716825
10,11,-21.447896193865216,230.57608594912043,231.57146556248892,1.66354816648939
10,12,0.0,0.0,0.0,0.0
10,13,-21.447896193865216,230.57608594912043,231.57146556248892,1.66354816648939
10,14,0.0,0.0,0.0,0.0
10,15,0.0,0.0,0.0,0.0
10,16,0.0,0.0,0.0,0.0
10,17,0.0,0.0,0.0,0.0
10,18,0.0,0.0,0.0,0.0
10,19,0.0,0.0,0.0,0.0
10,20,0.0,0.0,0.0,0.0
10,21,0.0,0.0,0.0,0.0
10,22,0.0,0.0,0.0,0.0
10,23,0.0,0.0,0.0,0.0
10,24,0.0,0.0,0.0,0.0
10,25,0.0,0.0,0.0,0.0
10,26,0.0,0.0,0.0,0.0
10,27,0.0,0.0,0.0,0.0
10,28,0.0,0.0,0.0,0.0
10,29,0.0,0.0,0.0,0.0
10,30,0.0,0.0,0.0,0.0
10,31,0.0,0.0,0.0,0.0
10,32,-23.364485981308405,40.46847681235695,46.72897196261682,2.0943951023931953
10,33,0.0,0.0,0.0,0.0
10,34,0.0,0.0,0.0,0.0
10,35,0.0,0.0,0.0,0.0
10,36,0.0,0.0,0.0,0.0
10,37,0.0,0.0,0.0,0.0
10,38,0.0,0.0,0.0,0.0
10,39,0.0,0.0,0.0,0.0
11,1,0.0,0.0,0.0,0.0
11,2,0.0,0.0,0.0,0.0
11,3,0.0,0.0,0.0,0.0
11,4,0.0,0.0,0.0,0.0
11,5,0.0,0.0,0.0,0.0
11,6,-10.335248470419808,121.09265236115797,121.53290836973159,1.6559399032942588
11,7,0.0,0.0,0.0,0.0
11,8,0.0,0.0,0.0,0.0
11,9,0.0,0.0,0.0,0.0
11,10,-21.447896193865216,230.57608594912043,231.57146556248892,1.66354816648939
11,11,32.637719845965975,-374.79659398723925,376.2149752750138,-1.4839342927109025
11,12,-0.8494783118098586,23.095191602330527,23.110808911645517,1.6075613623240486
11,13,0.0,0.0,0.0,0.0
11,14,0.0,0.0,0.0,0.0
11,15,0.0,0.0,0.0,0.0
11,16,0.0,0.0,0.0,0.0
11,17,0.0,0.0,0.0,0.0
11,18,0.0,0.0,0.0,0.0
11,19,0.0,0.0,0.0,0.0
11,20,0.0,0.0,0.0,0.0
11,21,0.0,0.0,0.0,0.0
11,22,0.0,0.0,0.0,0.0
11,23,0.0,0.0,0.0,0.0
11,24,0.0,0.0,0.0,0.0
11,25,0.0,0.0,0.0,0.0
11,26,0.0,0.0,0.0,0.0
11,27,0.0,0.0,0.0,0.0
11,28,0.0,0.0,0.0,0.0
11,29,0.0,0.0,0.0,0.0
11,30,0.0,0.0,0.0,0.0
11,31,0.0,0.0,0.0,0.0
11,32,0.0,0.0,0.0,0.0
11,33,0.0,0.0,0.0,0.0
11,34,0.0,0.0,0.0,0.0
11,35,0.0,0.0,0.0,0.0
11,36,0.0,0.0,0.0,0.0
11,37,0.0,0.0,0.0,0.0
11,38,0.0,0.0,0.0,0.0
11,39,0.0,0.0,0.0,0.0
12,1,0.0,0.0,0.0,0.0
12,2,0.0,0.0,0.0,0.0
12,3,0.0,0.0,0.0,0.0
12,4,0.0,0.0,0.0,0.0
12,5,0.0,0.0,0.0,0.0
12,6,0.0,0.0,0.0,0.0
12,7,0.0,0.0,0.0,0.0
12,8,0.0,0.0,0.0,0.0
12,9,0.0,0.0,0.0,0.0
12,10,0.0,0.0,0.0,0.0
12,11,-0.8494783118098586,23.095191602330527,23.110808911645517,1.6075613623240486
12,12,1.678781211780532,-45.64186419528321,45.672727897266036,-1.5340312912657446
12,13,-0.8393755872415878,22.820523778130664,22.835955353010394,1.6075613623240486
12,14,0.0,0.0,0.0,0.0
12,15,0.0,0.0,0.0,0.0
12,16,0.0,0.0,0.0,0.0
12,17,0.0,0.0,0.0,0.0
12,18,0.0,0.0,0.0,0.0
12,19,0.0,0.0,0.0,0.0
12,20,0.0,0.0,0.0,0.0
12,21,0.0,0.0,0.0,0.0
12,22,0.0,0.0,0.0,0.0
12,23,0.0,0.0,0.0,0.0
12,24,0.0,0.0,0.0,0.0
12,25,0.0,0.0,0.0,0.0
12,26,0.0,0.0,0.0,0.0
12,27,0.0,0.0,0.0,0.0
12,28,0.0,0.0,0.0,0.0
12,29,0.0,0.0,0.0,0.0
12,30,0.0,0.0,0.0,0.0
12,31,0.0,0.0,0.0,0.0
12,32,0.0,0.0,0.0,0.0
12,33,0.0,0.0,0.0,0.0
12,34,0.0,0.0,0.0,0.0
12,35,0.0,0.0,0.0,0.0
12,36,0.0,0.0,0.0,0.0
12,37,0.0,0.0,0.0,0.0
12,38,0.0,0.0,0.0,0.0
12,39,0.0,0.0,0.0,0.0
13,1,0.0,0.0,0.0,0.0
13,2,0.0,0.0,0.0,0.0
13,3,0.0,0.0,0.0,0.0
13,4,0.0,0.0,0.0,0.0
13,5,0.0,0.0,0.0,0.0
13,6,0.0,0.0,0.0,0.0
13,7,0.0,0.0,0.0,0.0
13,8,0.0,0.0,0.0,0.0
13,9,0.0,0.0,0.0,0.0
13,10,-21.447896193865216,230.57608594912043,231.57146556248892,1.66354816648939
13,11,0.0,0.0,0.0,0.0
13,12,-0.8393755872415878,22.820523778130664,22.835955353010394,1.6075613623240486
13,13,31.045514681831435,-351.6698163170652,353.0375103163093,-1.4827443014633355
13,14,-8.753206647201184,98.25889651506385,98.64800743535895,1.6596448893789286
13,15,0.0,0.0,0.0,0.0
13,16,0.0,0.0,0.0,0.0
13,17,0.0,0.0,0.0,0.0
13,18,0.0,0.0,0.0,0.0
13,19,0.0,0.0,0.0,0.0
13,20,0.0,0.0,0.0,0.0
13,21,0.0,0.0,0.0,0.0
13,22,0.0,0.0,0.0,0.0
13,23,0.0,0.0,0.0,0.0
13,24,0.0,0.0,0.0,0.0
13,25,0.0,0.0,0.0,0.0
13,26,0.0,0.0,0.0,0.0
13,27,0.0,0.0,0.0,0.0
13,28,0.0,0.0,0.0,0.0
13,29,0.0,0.0,0.0,0.0
13,30,0.0,0.0,0.0,0.0
13,31,0.0,0.0,0.0,0.0
13,32,0.0,0.0,0.0,0.0
13,33,0.0,0.0,0.0,0.0
13,34,0.0,0.0,0.0,0.0
13,35,0.0,0.0,0.0,0.0
13,36,0.0,0.0,0.0,0.0
13,37,0.0,0.0,0.0,0.0
13,38,0.0,0.0,0.0,0.0
13,39,0.0,0.0,0.0,0.0
14,1,0.0,0.0,0.0,0.0
14,2,0.0,0.0,0.0,0.0
14,3,0.0,0.0,0.0,0.0
14,4,-4.7889790793528935,77.24537879536291,77.39368750655044,1.6327140439099472
14,5,0.0,0.0,0.0,0.0
14,6,0.0,0.0,0.0,0.0
14,7,0.0,0.0,0.0,0.0
14,8,0.0,0.0,0.0,0.0
14,9,0.0,0.0,0.0,0.0
14,10,0.0,0.0,0.0,0.0
14,11,0.0,0.0,0.0,0.0
14,12,0.0,0.0,0.0,0.0
14,13,-8.753206647201184,98.25889651506385,98.64800743535895,1.6596448893789286
14,14,17.338593597531524,-220.99488891536504,221.67401235745902,-1.4924997263594422
14,15,-3.7964078709774483,45.829007749925765,45.985983343466465,1.6534461528529132
14,16,0.0,0.0,0.0,0.0
14,17,0.0,0.0,0.0,0.0
14,18,0.0,0.0,0.0,0.0
14,19,0.0,0.0,0.0,0.0
14,20,0.0,0.0,0.0,0.0
14,21,0.0,0.0,0.0,0.0
14,22,0.0,0.0,0.0,0.0
14,23,0.0,0.0,0.0,0.0
14,24,0.0,0.0,0.0,0.0
14,25,0.0,0.0,0.0,0.0
14,26,0.0,0.0,0.0,0.0
14,27,0.0,0.0,0.0,0.0
14,28,0.0,0.0,0.0,0.0
14,29,0.0,0.0,0.0,0.0
14,30,0.0,0.0,0.0,0.0
14,31,0.0,0.0,0.0,0.0
14,32,0.0,0.0,0.0,0.0
14,33,0.0,0.0,0.0,0.0
14,34,0.0,0.0,0.0,0.0
14,35,0.0,0.0,0.0,0.0
14,36,0.0,0.0,0.0,0.0
14,37,0.0,0.0,0.0,0.0
14,38,0.0,0.0,0.0,0.0
14,39,0.0,0.0,0.0,0.0
15,1,0.0,0.0,0.0,0.0
15,2,0.0,0.0,0.0,0.0
15,3,0.0,0.0,0.0,0.0
15,4,0.0,0.0,0.0,0.0
15,5,0.0,0.0,0.0,0.0
15,6,0.0,0.0,0.0,0.0
15,7,0.0,0.0,0.0,0.0
15,8,0.0,0.0,0.0,0.0
15,9,0.0,0.0,0.0,0.0
15,10,0.0,0.0,0.0,0.0
15,11,0.0,0.0,0.0,0.0
15,12,0.0,0.0,0.0,0.0
15,13,0.0,0.0,0.0,0.0
15,14,-3.7964078709774483,45.829007749925765,45.985983343466465,1.6534461528529132
15,15,13.88955842420577,-151.0058646758727,151.64330186238823,-1.479074155348192
15,16,-10.093150553228321,105.44548964749643,105.92744203033703,1.6662247225176532
15,17,0.0,0.0,0.0,0.0
15,18,0.0,0.0,0.0,0.0
15,19,0.0,0.0,0.0,0.0
15,20,0.0,0.0,0.0,0.0
15,21,0.0,0.0,0.0,0.0
15,22,0.0,0.0,0.0,0.0
15,23,0.0,0.0,0.0,0.0
15,24,0.0,0.0,0.0,0.0
15,25,0.0,0.0,0.0,0.0
15,26,0.0,0.0,0.0,0.0
15,27,0.0,0.0,0.0,0.0
15,28,0.0,0.0,0.0,0.0
15,29,0.0,0.0,0.0,0.0
15,30,0.0,0.0,0.0,0.0
15,31,0.0,0.0,0.0,0.0
15,32,0.0,0.0,0.0,0.0
15,33,0.0,0.0,0.0,0.0
15,34,0.0,0.0,0.0,0.0
15,35,0.0,0.0,0.0,0.0
15,36,0.0,0.0,0.0,0.0
15,37,0.0,0.0,0.0,0.0
15,38,0.0,0.0,0.0,0.0
15,39,0.0,0.0,0.0,0.0
16,1,0.0,0.0,0.0,0.0
16,2,0.0,0.0,0.0,0.0
16,3,0.0,0.0,0.0,0.0
16,4,0.0,0.0,0.0,0.0
16,5,0.0,0.0,0.0,0.0
16,6,0.0,0.0,0.0,0.0
16,7,0.0,0.0,0.0,0.0
16,8,0.0,0.0,0.0,0.0
16,9,0.0,0.0,0.0,0.0
16,10,0.0,0.0,0.0,0.0
16,11,0.0,0.0,0.0,0.0
16,12,0.0,0.0,0.0,0.0
16,13,0.0,0.0,0.0,0.0
16,14,0.0,0.0,0.0,0.0
16,15,-10.093150553228321,105.44548964749643,105.92744203033703,1.6662247225176532
16,16,36.0259140707733,-510.5837219874404,511.85310748610544,-1.500354779600242
16,17,-8.78288321020432,111.69079562718785,112.03558749485957,1.6492705361806728
16,18,0.0,0.0,0.0,0.0
16,19,-4.179600612727483,50.98971533523576,51.16072840812852,1.652582962312265
16,20,0.0,0.0,0.0,0.0
16,21,-4.374237987987768,73.85755508082201,73.98697453263117,1.6299525539847515
16,22,0.0,0.0,0.0,0.0
16,23,0.0,0.0,0.0,0.0
16,24,-8.596041706625405,169.0662969481294,169.28468535805334,1.6215967880646494
16,25,0.0,0.0,0.0,0.0
16,26,0.0,0.0,0.0,0.0
16,27,0.0,0.0,0.0,0.0
16,28,0.0,0.0,0.0,0.0
16,29,0.0,0.0,0.0,0.0
16,30,0.0,0.0,0.0,0.0
16,31,0.0,0.0,0.0,0.0
16,32,0.0,0.0,0.0,0.0
16,33,0.0,0.0,0.0,0.0
16,34,0.0,0.0,0.0,0.0
16,35,0.0,0.0,0.0,0.0
16,36,0.0,0.0,0.0,0.0
16,37,0.0,0.0,0.0,0.0
16,38,0.0,0.0,0.0,0.0
16,39,0.0,0.0,0.0,0.0
17,1,0.0,0.0,0.0,0.0
17,2,0.0,0.0,0.0,0.0
17,3,0.0,0.0,0.0,0.0
17,4,0.0,0.0,0.0,0.0
17,5,0.0,0.0,0.0,0.0
17,6,0.0,0.0,0.0,0.0
17,7,0.0,0.0,0.0,0.0
17,8,0.0,0.0,0.0,0.0
17,9,0.0,0.0,0.0,0.0
17,10,0.0,0.0,0.0,0.0
17,11,0.0,0.0,0.0,0.0
17,12,0.0,0.0,0.0,0.0
17,13,0.0,0.0,0.0,0.0
17,14,0.0,0.0,0.0,0.0
17,15,0.0,0.0,0.0,0.0
17,16,-8.78288321020432,111.69079562718785,112.03558749485957,1.6492705361806728
17,17,23.437388804895225,-290.02110104080793,290.96657925424074,-1.4901588596646291
17,18,-10.335270055543337,121.09161068732637,121.53187230505429,1.655940809160698
17,19,0.0,0.0,0.0,0.0
17,20,0.0,0.0,0.0,0.0
17,21,0.0,0.0,0.0,0.0
17,22,0.0,0.0,0.0,0.0
17,23,0.0,0.0,0.0,0.0
17,24,0.0,0.0,0.0,0.0
17,25,0.0,0.0,0.0,0.0
17,26,0.0,0.0,0.0,0.0
17,27,-4.3192355391475665,57.532631507028725,57.69453599576124,1.6457302918583394
17,28,0.0,0.0,0.0,0.0
17,29,0.0,0.0,0.0,0.0
17,30,0.0,0.0,0.0,0.0
17,31,0.0,0.0,0.0,0.0
17,32,0.0,0.0,0.0,0.0
17,33,0.0,0.0,0.0,0.0
17,34,0.0,0.0,0.0,0.0
17,35,0.0,0.0,0.0,0.0
17,36,0.0,0.0,0.0,0.0
17,37,0.0,0.0,0.0,0.0
17,38,0.0,0.0,0.0,0.0
17,39,0.0,0.0,0.0,0.0
18,1,0.0,0.0,0.0,0.0
18,2,0.0,0.0,0.0,0.0
18,3,-6.17626671407597,74.71256626125229,74.96741844204999,1.653275824222954
18,4,0.0,0.0,0.0,0.0
18,5,0.0,0.0,0.0,0.0
18,6,0.0,0.0,0.0,0.0
18,7,0.0,0.0,0.0,0.0
18,8,0.0,0.0,0.0,0.0
18,9,0.0,0.0,0.0,0.0
18,10,0.0,0.0,0.0,0.0
18,11,0.0,0.0,0.0,0.0
18,12,0.0,0.0,0.0,0.0
18,13,0.0,0.0,0.0,0.0
18,14,0.0,0.0,0.0,0.0
18,15,0.0,0.0,0.0,0.0
18,16,0.0,0.0,0.0,0.0
18,17,-10.335270055543337,121.09161068732637,121.53187230505429,1.655940809160698
18,18,16.511536769619305,-195.63129570946566,196.32685681653155,-1.4865945821183881
18,19,0.0,0.0,0.0,0.0
18,20,0.0,0.0,0.0,0.0
18,21,0.0,0.0,0.0,0.0
18,22,0.0,0.0,0.0,0.0
18,23,0.0,0.0,0.0,0.0
18,24,0.0,0.0,0.0,0.0
18,25,0.0,0.0,0.0,0.0
18,26,0.0,0.0,0.0,0.0
18,27,0.0,0.0,0.0,0.0
18,28,0.0,0.0,0.0,0.0
18,29,0.0,0.0,0.0,0.0
18,30,0.0,0.0,0.0,0.0
18,31,0.0,0.0,0.0,0.0
18,32,0.0,0.0,0.0,0.0
18,33,0.0,0.0,0.0,0.0
18,34,0.0,0.0,0.0,0.0
18,35,0.0,0.0,0.0,0.0
18,36,0.0,0.0,0.0,0.0
18,37,0.0,0.0,0.0,0.0
18,38,0.0,0.0,0.0,0.0
18,39,0.0,0.0,0.0,0.0
19,1,0.0,0.0,0.0,0.0
19,2,0.0,0.0,0.0,0.0
19,3,0.0,0.0,0.0,0.0
19,4,0.0,0.0,0.0,0.0
19,5,0.0,0.0,0.0,0.0
19,6,0.0,0.0,0.0,0.0
19,7,0.0,0.0,0.0,0.0
19,8,0.0,0.0,0.0,0.0
19,9,0.0,0.0,0.0,0.0
19,10,0.0,0.0,0.0,0.0
19,11,0.0,0.0,0.0,0.0
19,12,0.0,0.0,0.0,0.0
19,13,0.0,0.0,0.0,0.0
19,14,0.0,0.0,0.0,0.0
19,15,0.0,0.0,0.0,0.0
19,16,-4.179600612727483,50.98971533523576,51.16072840812852,1.652582962312265
19,17,0.0,0.0,0.0,0.0
19,18,0.0,0.0,0.0,0.0
19,19,10.467384723794455,-176.52528165054977,176.83535055175435,-1.5115688763040374
19,20,-3.4587406823996543,68.18660202445032,68.27426735417129,1.6214775268723516
19,21,0.0,0.0,0.0,0.0
19,22,0.0,0.0,0.0,0.0
19,23,0.0,0.0,0.0,0.0
19,24,0.0,0.0,0.0,0.0
19,25,0.0,0.0,0.0,0.0
19,26,0.0,0.0,0.0,0.0
19,27,0.0,0.0,0.0,0.0
19,28,0.0,0.0,0.0,0.0
19,29,0.0,0.0,0.0,0.0
19,30,0.0,0.0,0.0,0.0
19,31,0.0,0.0,0.0,0.0
19,32,0.0,0.0,0.0,0.0
19,33,-35.6308944444891,55.24140212225327,65.73563072905601,2.143651004377519
19,34,0.0,0.0,0.0,0.0
19,35,0.0,0.0,0.0,0.0
19,36,0.0,0.0,0.0,0.0
19,37,0.0,0.0,0.0,0.0
19,38,0.0,0.0,0.0,0.0
19,39,0.0,0.0,0.0,0.0
20,1,0.0,0.0,0.0,0.0
20,2,0.0,0.0,0.0,0.0
20,3,0.0,0.0,0.0,0.0
20,4,0.0,0.0,0.0,0.0
20,5,0.0,0.0,0.0,0.0
20,6,0.0,0.0,0.0,0.0
20,7,0.0,0.0,0.0,0.0
20,8,0.0,0.0,0.0,0.0
20,9,0.0,0.0,0.0,0.0
20,10,0.0,0.0,0.0,0.0
20,11,0.0,0.0,0.0,0.0
20,12,0.0,0.0,0.0,0.0
20,13,0.0,0.0,0.0,0.0
20,14,0.0,0.0,0.0,0.0
20,15,0.0,0.0,0.0,0.0
20,16,0.0,0.0,0.0,0.0
20,17,0.0,0.0,0.0,0.0
20,18,0.0,0.0,0.0,0.0
20,19,-3.4587406823996543,68.18660202445032,68.27426735417129,1.6214775268723516
20,20,6.387905789606833,-126.71061147118132,126.87152714371165,-1.520425625237384
20,21,0.0,0.0,0.0,0.0
20,22,0.0,0.0,0.0,0.0
20,23,0.0,0.0,0.0,0.0
20,24,0.0,0.0,0.0,0.0
20,25,0.0,0.0,0.0,0.0
20,26,0.0,0.0,0.0,0.0
20,27,0.0,0.0,0.0,0.0
20,28,0.0,0.0,0.0,0.0
20,29,0.0,0.0,0.0,0.0
20,30,0.0,0.0,0.0,0.0
20,31,0.0,0.0,0.0,0.0
20,32,0.0,0.0,0.0,0.0
20,33,0.0,0.0,0.0,0.0
20,34,-29.839577369165017,46.19139321525714,54.99131917618352,2.144353498115138
20,35,0.0,0.0,0.0,0.0
20,36,0.0,0.0,0.0,0.0
20,37,0.0,0.0,0.0,0.0
20,38,0.0,0.0,0.0,0.0
20,39,0.0,0.0,0.0,0.0
21,1,0.0,0.0,0.0,0.0
21,2,0.0,0.0,0.0,0.0
21,3,0.0,0.0,0.0,0.0
21,4,0.0,0.0,0.0,0.0
21,5,0.0,0.0,0.0,0.0
21,6,0.0,0.0,0.0,0.0
21,7,0.0,0.0,0.0,0.0
21,8,0.0,0.0,0.0,0.0
21,9,0.0,0.0,0.0,0.0
21,10,0.0,0.0,0.0,0.0
21,11,0.0,0.0,0.0,0.0
21,12,0.0,0.0,0.0,0.0
21,13,0.0,0.0,0.0,0.0
21,14,0.0,0.0,0.0,0.0
21,15,0.0,0.0,0.0,0.0
21,16,-4.374237987987768,73.85755508082201,73.98697453263117,1.6299525539847515
21,17,0.0,0.0,0.0,0.0
21,18,0.0,0.0,0.0,0.0
21,19,0.0,0.0,0.0,0.0
21,20,0.0,0.0,0.0,0.0
21,21,8.442578698366388,-144.84063592958017,145.08648094003556,-1.5125734624057463
21,22,-4.06834071037862,71.23880551050215,71.35487934751816,1.6278428552202318
21,23,0.0,0.0,0.0,0.0
21,24,0.0,0.0,0.0,0.0
21,25,0.0,0.0,0.0,0.0
21,26,0.0,0.0,0.0,0.0
21,27,0.0,0.0,0.0,0.0
21,28,0.0,0.0,0.0,0.0
21,29,0.0,0.0,0.0,0.0
21,30,0.0,0.0,0.0,0.0
21,31,0.0,0.0,0.0,0.0
21,32,0.0,0.0,0.0,0.0
21,33,0.0,0.0,0.0,0.0
21,34,0.0,0.0,0.0,0.0
21,35,0.0,0.0,0.0,0.0
21,36,0.0,0.0,0.0,0.0
21,37,0.0,0.0,0.0,0.0
21,38,0.0,0.0,0.0,0.0
21,39,0.0,0.0,0.0,0.0
22,1,0.0,0.0,0.0,0.0
22,2,0.0,0.0,0.0,0.0
22,3,0.0,0.0,0.0,0.0
22,4,0.0,0.0,0.0,0.0
22,5,0.0,0.0,0.0,0.0
22,6,0.0,0.0,0.0,0.0
22,7,0.0,0.0,0.0,0.0
22,8,0.0,0.0,0.0,0.0
22,9,0.0,0.0,0.0,0.0
22,10,0.0,0.0,0.0,0.0
22,11,0.0,0.0,0.0,0.0
22,12,0.0,0.0,0.0,0.0
22,13,0.0,0.0,0.0,0.0
22,14,0.0,0.0,0.0,0.0
22,15,0.0,0.0,0.0,0.0
22,16,0.0,0.0,0.0,0.0
22,17,0.0,0.0,0.0,0.0
22,18,0.0,0.0,0.0,0.0
22,19,0.0,0.0,0.0,0.0
22,20,0.0,0.0,0.0,0.0
22,21,-4.06834071037862,71.23880551050215,71.35487934751816,1.6278428552202318
22,22,10.55340616906373,-241.37062548860672,241.6012277090712,-1.5271013290330706
22,23,-6.48506545868511,103.79197495211677,103.99437551360298,1.6331965856769686
22,24,0.0,0.0,0.0,0.0
22,25,0.0,0.0,0.0,0.0
22,26,0.0,0.0,0.0,0.0
22,27,0.0,0.0,0.0,0.0
22,28,0.0,0.0,0.0,0.0
22,29,0.0,0.0,0.0,0.0
22,30,0.0,0.0,0.0,0.0
22,31,0.0,0.0,0.0,0.0
22,32,0.0,0.0,0.0,0.0
22,33,0.0,0.0,0.0,0.0
22,34,0.0,0.0,0.0,0.0
22,35,-34.112229234180454,59.08411419303693,68.22445846836092,2.0943951023931953
22,36,0.0,0.0,0.0,0.0
22,37,0.0,0.0,0.0,0.0
22,38,0.0,0.0,0.0,0.0
22,39,0.0,0.0,0.0,0.0
23,1,0.0,0.0,0.0,0.0
23,2,0.0,0.0,0.0,0.0
23,3,0.0,0.0,0.0,0.0
23,4,0.0,0.0,0.0,0.0
23,5,0.0,0.0,0.0,0.0
23,6,0.0,0.0,0.0,0.0
23,7,0.0,0.0,0.0,0.0
23,8,0.0,0.0,0.0,0.0
23,9,0.0,0.0,0.0,0.0
23,10,0.0,0.0,0.0,0.0
23,11,0.0,0.0,0.0,0.0
23,12,0.0,0.0,0.0,0.0
23,13,0.0,0.0,0.0,0.0
23,14,0.0,0.0,0.0,0.0
23,15,0.0,0.0,0.0,0.0
23,16,0.0,0.0,0.0,0.0
23,17,0.0,0.0,0.0,0.0
23,18,0.0,0.0,0.0,0.0
23,19,0.0,0.0,0.0,0.0
23,20,0.0,0.0,0.0,0.0
23,21,0.0,0.0,0.0,0.0
23,22,-6.48506545868511,103.79197495211677,103.99437551360298,1.6331965856769686
23,23,8.949502610997794,-168.7904890534139,169.02757997402344,-1.517824561010371
23,24,-1.7888436434151167,28.519231341897488,28.57527808986738,1.6334383800179342
23,25,0.0,0.0,0.0,0.0
23,26,0.0,0.0,0.0,0.0
23,27,0.0,0.0,0.0,0.0
23,28,0.0,0.0,0.0,0.0
23,29,0.0,0.0,0.0,0.0
23,30,0.0,0.0,0.0,0.0
23,31,0.0,0.0,0.0,0.0
23,32,0.0,0.0,0.0,0.0
23,33,0.0,0.0,0.0,0.0
23,34,0.0,0.0,0.0,0.0
23,35,0.0,0.0,0.0,0.0
23,36,-18.961224583350965,31.490617334292768,36.75849585871453,2.1127753852215903
23,37,0.0,0.0,0.0,0.0
23,38,0.0,0.0,0.0,0.0
23,39,0.0,0.0,0.0,0.0
24,1,0.0,0.0,0.0,0.0
24,2,0.0,0.0,0.0,0.0
24,3,0.0,0.0,0.0,0.0
24,4,0.0,0.0,0.0,0.0
24,5,0.0,0.0,0.0,0.0
24,6,0.0,0.0,0.0,0.0
24,7,0.0,0.0,0.0,0.0
24,8,0.0,0.0,0.0,0.0
24,9,0.0,0.0,0.0,0.0
24,10,0.0,0.0,0.0,0.0
24,11,0.0,0.0,0.0,0.0
24,12,0.0,0.0,0.0,0.0
24,13,0.0,0.0,0.0,0.0
24,14,0.0,0.0,0.0,0.0
24,15,0.0,0.0,0.0,0.0
24,16,-8.596041706625405,169.0662969481294,169.28468535805334,1.6215967880646494
24,17,0.0,0.0,0.0,0.0
24,18,0.0,0.0,0.0,0.0
24,19,0.0,0.0,0.0,0.0
24,20,0.0,0.0,0.0,0.0
24,21,0.0,0.0,0.0,0.0
24,22,0.0,0.0,0.0,0.0
24,23,-1.7888436434151167,28.519231341897488,28.57527808986738,1.6334383800179342
24,24,10.384885350040522,-197.3708368990144,197.64385419726773,-1.5182286930036741
24,25,0.0,0.0,0.0,0.0
24,26,0.0,0.0,0.0,0.0
24,27,0.0,0.0,0.0,0.0
24,28,0.0,0.0,0.0,0.0
24,29,0.0,0.0,0.0,0.0
24,30,0.0,0.0,0.0,0.0
24,31,0.0,0.0,0.0,0.0
24,32,0.0,0.0,0.0,0.0
24,33,0.0,0.0,0.0,0.0
24,34,0.0,0.0,0.0,0.0
24,35,0.0,0.0,0.0,0.0
24,36,0.0,0.0,0.0,0.0
24,37,0.0,0.0,0.0,0.0
24,38,0.0,0.0,0.0,0.0
24,39,0.0,0.0,0.0,0.0
25,1,0.0,0.0,0.0,0.0
25,2,-56.928924653874475,69.96574918018858,90.20037982509595,2.253816315497259
25,3,0.0,0.0,0.0,0.0
25,4,0.0,0.0,0.0,0.0
25,5,0.0,0.0,0.0,0.0
25,6,0.0,0.0,0.0,0.0
25,7,0.0,0.0,0.0,0.0
25,8,0.0,0.0,0.0,0.0
25,9,0.0,0.0,0.0,0.0
25,10,0.0,0.0,0.0,0.0
25,11,0.0,0.0,0.0,0.0
25,12,0.0,0.0,0.0,0.0
25,13,0.0,0.0,0.0,0.0
25,14,0.0,0.0,0.0,0.0
25,15,0.0,0.0,0.0,0.0
25,16,0.0,0.0,0.0,0.0
25,17,0.0,0.0,0.0,0.0
25,18,0.0,0.0,0.0,0.0
25,19,0.0,0.0,0.0,0.0
25,20,0.0,0.0,0.0,0.0
25,21,0.0,0.0,0.0,0.0
25,22,0.0,0.0,0.0,0.0
25,23,0.0,0.0,0.0,0.0
25,24,0.0,0.0,0.0,0.0
25,25,61.02664227514984,-141.3794752858042,153.98833429668764,-1.1633054367513123
25,26,-3.0373970907970014,30.744527906416636,30.894202972007765,1.669271492979209
25,27,0.0,0.0,0.0,0.0
25,28,0.0,0.0,0.0,0.0
25,29,0.0,0.0,0.0,0.0
25,30,0.0,0.0,0.0,0.0
25,31,0.0,0.0,0.0,0.0
25,32,0.0,0.0,0.0,0.0
25,33,0.0,0.0,0.0,0.0
25,34,0.0,0.0,0.0,0.0
25,35,0.0,0.0,0.0,0.0
25,36,0.0,0.0,0.0,0.0
25,37,-21.953239640750024,35.85046936103354,42.0380884928252,2.120251407752455
25,38,0.0,0.0,0.0,0.0
25,39,0.0,0.0,0.0,0.0
26,1,0.0,0.0,0.0,0.0
26,2,0.0,0.0,0.0,0.0
26,3,0.0,0.0,0.0,0.0
26,4,0.0,0.0,0.0,0.0
26,5,0.0,0.0,0.0,0.0
26,6,0.0,0.0,0.0,0.0
26,7,0.0,0.0,0.0,0.0
26,8,0.0,0.0,0.0,0.0
26,9,0.0,0.0,0.0,0.0
26,10,0.0,0.0,0.0,0.0
26,11,0.0,0.0,0.0,0.0
26,12,0.0,0.0,0.0,0.0
26,13,0.0,0.0,0.0,0.0
26,14,0.0,0.0,0.0,0.0
26,15,0.0,0.0,0.0,0.0
26,16,0.0,0.0,0.0,0.0
26,17,0.0,0.0,0.0,0.0
26,18,0.0,0.0,0.0,0.0
26,19,0.0,0.0,0.0,0.0
26,20,0.0,0.0,0.0,0.0
26,21,0.0,0.0,0.0,0.0
26,22,0.0,0.0,0.0,0.0
26,23,0.0,0.0,0.0,0.0
26,24,0.0,0.0,0.0,0.0
26,25,-3.0373970907970014,30.744527906416636,30.894202972007765,1.669271492979209
26,26,12.803179465704458,-134.0111895749554,134.62139627758165,-1.475547283557609
26,27,-6.420544355189527,67.45568098057883,67.76055110734107,1.665692114625592
26,28,-1.8981916427788719,21.055426836687307,21.140816701059766,1.660705409662886
26,29,-1.4470463769390587,16.040825131834126,16.10596206772802,1.6607630287603843
26,30,0.0,0.0,0.0,0.0
26,31,0.0,0.0,0.0,0.0
26,32,0.0,0.0,0.0,0.0
26,33,0.0,0.0,0.0,0.0
26,34,0.0,0.0,0.0,0.0
26,35,0.0,0.0,0.0,0.0
26,36,0.0,0.0,0.0,0.0
26,37,0.0,0.0,0.0,0.0
26,38,0.0,0.0,0.0,0.0
26,39,0.0,0.0,0.0,0.0
27,1,0.0,0.0,0.0,0.0
27,2,0.0,0.0,0.0,0.0
27,3,0.0,0.0,0.0,0.0
27,4,0.0,0.0,0.0,0.0
27,5,0.0,0.0,0.0,0.0
27,6,0.0,0.0,0.0,0.0
27,7,0.0,0.0,0.0,0.0
27,8,0.0,0.0,0.0,0.0
27,9,0.0,0.0,0.0,0.0
27,10,0.0,0.0,0.0,0.0
27,11,0.0,0.0,0.0,0.0
27,12,0.0,0.0,0.0,0.0
27,13,0.0,0.0,0.0,0.0
27,14,0.0,0.0,0.0,0.0
27,15,0.0,0.0,0.0,0.0
27,16,0.0,0.0,0.0,0.0
27,17,-4.3192355391475665,57.532631507028725,57.69453599576124,1.6457302918583394
27,18,0.0,0.0,0.0,0.0
27,19,0.0,0.0,0.0,0.0
27,20,0.0,0.0,0.0,0.0
27,21,0.0,0.0,0.0,0.0
27,22,0.0,0.0,0.0,0.0
27,23,0.0,0.0,0.0,0.0
27,24,0.0,0.0,0.0,0.0
27,25,0.0,0.0,0.0,0.0
27,26,-6.420544355189527,67.45568098057883,67.76055110734107,1.665692114625592
27,27,10.739779894337094,-124.70760298714156,125.16920194271962,-1.4848886012079918
27,28,0.0,0.0,0.0,0.0
27,29,0.0,0.0,0.0,0.0
27,30,0.0,0.0,0.0,0.0
27,31,0.0,0.0,0.0,0.0
27,32,0.0,0.0,0.0,0.0
27,33,0.0,0.0,0.0,0.0
27,34,0.0,0.0,0.0,0.0
27,35,0.0,0.0,0.0,0.0
27,36,0.0,0.0,0.0,0.0
27,37,0.0,0.0,0.0,0.0
27,38,0.0,0.0,0.0,0.0
27,39,0.0,0.0,0.0,0.0
28,1,0.0,0.0,0.0,0.0
28,2,0.0,0.0,0.0,0.0
28,3,0.0,0.0,0.0,0.0
28,4,0.0,0.0,0.0,0.0
28,5,0.0,0.0,0.0,0.0
28,6,0.0,0.0,0.0,0.0
28,7,0.0,0.0,0.0,0.0
28,8,0.0,0.0,0.0,0.0
28,9,0.0,0.0,0.0,0.0
28,10,0.0,0.0,0.0,0.0
28,11,0.0,0.0,0.0,0.0
28,12,0.0,0.0,0.0,0.0
28,13,0.0,0.0,0.0,0.0
28,14,0.0,0.0,0.0,0.0
28,15,0.0,0.0,0.0,0.0
28,16,0.0,0.0,0.0,0.0
28,17,0.0,0.0,0.0,0.0
28,18,0.0,0.0,0.0,0.0
28,19,0.0,0.0,0.0,0.0
28,20,0.0,0.0,0.0,0.0
28,21,0.0,0.0,0.0,0.0
28,22,0.0,0.0,0.0,0.0
28,23,0.0,0.0,0.0,0.0
28,24,0.0,0.0,0.0,0.0
28,25,0.0,0.0,0.0,0.0
28,26,-1.8981916427788719,21.055426836687307,21.140816701059766,1.660705409662886
28,27,0.0,0.0,0.0,0.0
28,28,7.985948426374352,-86.24187977372445,86.61083765426964,-1.4784602183322217
28,29,-6.087756783595481,65.70229875105814,65.9837316603836,1.6631892024707393
28,30,0.0,0.0,0.0,0.0
28,31,0.0,0.0,0.0,0.0
28,32,0.0,0.0,0.0,0.0
28,33,0.0,0.0,0.0,0.0
28,34,0.0,0.0,0.0,0.0
28,35,0.0,0.0,0.0,0.0
28,36,0.0,0.0,0.0,0.0
28,37,0.0,0.0,0.0,0.0
28,38,0.0,0.0,0.0,0.0
28,39,0.0,0.0,0.0,0.0
29,1,0.0,0.0,0.0,0.0
29,2,0.0,0.0,0.0,0.0
29,3,0.0,0.0,0.0,0.0
29,4,0.0,0.0,0.0,0.0
29,5,0.0,0.0,0.0,0.0
29,6,0.0,0.0,0.0,0.0
29,7,0.0,0.0,0.0,0.0
29,8,0.0,0.0,0.0,0.0
29,9,0.0,0.0,0.0,0.0
29,10,0.0,0.0,0.0,0.0
29,11,0.0,0.0,0.0,0.0
29,12,0.0,0.0,0.0,0.0
29,13,0.0,0.0,0.0,0.0
29,14,0.0,0.0,0.0,0.0
29,15,0.0,0.0,0.0,0.0
29,16,0.0,0.0,0.0,0.0
29,17,0.0,0.0,0.0,0.0
29,18,0.0,0.0,0.0,0.0
29,19,0.0,0.0,0.0,0.0
29,20,0.0,0.0,0.0,0.0
29,21,0.0,0.0,0.0,0.0
29,22,0.0,0.0,0.0,0.0
29,23,0.0,0.0,0.0,0.0
29,24,0.0,0.0,0.0,0.0
29,25,0.0,0.0,0.0,0.0
29,26,-1.4470463769390587,16.040825131834126,16.10596206772802,1.6607630287603843
29,27,0.0,0.0,0.0,0.0
29,28,-6.087756783595481,65.70229875105814,65.9837316603836,1.6631892024707393
29,29,10.6555060988714,-141.95501751226206,142.3543705234571,-1.495874275753824
29,30,0.0,0.0,0.0,0.0
29,31,0.0,0.0,0.0,0.0
29,32,0.0,0.0,0.0,0.0
29,33,0.0,0.0,0.0,0.0
29,34,0.0,0.0,0.0,0.0
29,35,0.0,0.0,0.0,0.0
29,36,0.0,0.0,0.0,0.0
29,37,0.0,0.0,0.0,0.0
29,38,-33.95769821282508,52.41901758911334,62.45701460141268,2.1456322697966144
29,39,0.0,0.0,0.0,0.0
30,1,0.0,0.0,0.0,0.0
30,2,26.950545748551402,46.67971452820044,53.90109149710282,1.0471975511965979
30,3,0.0,0.0,0.0,0.0
30,4,0.0,0.0,0.0,0.0
30,5,0.0,0.0,0.0,0.0
30,6,0.0,0.0,0.0,0.0
30,7,0.0,0.0,0.0,0.0
30,8,0.0,0.0,0.0,0.0
30,9,0.0,0.0,0.0,0.0
30,10,0.0,0.0,0.0,0.0
30,11,0.0,0.0,0.0,0.0
30,12,0.0,0.0,0.0,0.0
30,13,0.0,0.0,0.0,0.0
30,14,0.0,0.0,0.0,0.0
30,15,0.0,0.0,0.0,0.0
30,16,0.0,0.0,0.0,0.0
30,17,0.0,0.0,0.0,0.0
30,18,0.0,0.0,0.0,0.0
30,19,0.0,0.0,0.0,0.0
30,20,0.0,0.0,0.0,0.0
30,21,0.0,0.0,0.0,0.0
30,22,0.0,0.0,0.0,0.0
30,23,0.0,0.0,0.0,0.0
30,24,0.0,0.0,0.0,0.0
30,25,0.0,0.0,0.0,0.0
30,26,0.0,0.0,0.0,0.0
30,27,0.0,0.0,0.0,0.0
30,28,0.0,0.0,0.0,0.0
30,29,0.0,0.0,0.0,0.0
30,30,0.0,-55.24861878453038,55.24861878453038,-1.5707963267948966
30,31,0.0,0.0,0.0,0.0
30,32,0.0,0.0,0.0,0.0
30,33,0.0,0.0,0.0,0.0
30,34,0.0,0.0,0.0,0.0
30,35,0.0,0.0,0.0,0.0
30,36,0.0,0.0,0.0,0.0
30,37,0.0,0.0,0.0,0.0
30,38,0.0,0.0,0.0,0.0
30,39,0.0,0.0,0.0,0.0
31,1,0.0,0.0,0.0,0.0
31,2,0.0,0.0,0.0,0.0
31,3,0.0,0.0,0.0,0.0
31,4,0.0,0.0,0.0,0.0
31,5,0.0,0.0,0.0,0.0
31,6,18.691588785046726,32.37478144988556,37.38317757009346,1.0471975511965979
31,7,0.0,0.0,0.0,0.0
31,8,0.0,0.0,0.0,0.0
31,9,0.0,0.0,0.0,0.0
31,10,0.0,0.0,0.0,0.0
31,11,0.0,0.0,0.0,0.0
31,12,0.0,0.0,0.0,0.0
31,13,0.0,0.0,0.0,0.0
31,14,0.0,0.0,0.0,0.0
31,15,0.0,0.0,0.0,0.0
31,16,0.0,0.0,0.0,0.0
31,17,0.0,0.0,0.0,0.0
31,18,0.0,0.0,0.0,0.0
31,19,0.0,0.0,0.0,0.0
31,20,0.0,0.0,0.0,0.0
31,21,0.0,0.0,0.0,0.0
31,22,0.0,0.0,0.0,0.0
31,23,0.0,0.0,0.0,0.0
31,24,0.0,0.0,0.0,0.0
31,25,0.0,0.0,0.0,0.0
31,26,0.0,0.0,0.0,0.0
31,27,0.0,0.0,0.0,0.0
31,28,0.0,0.0,0.0,0.0
31,29,0.0,0.0,0.0,0.0
31,30,0.0,0.0,0.0,0.0
31,31,0.0,-40.0,40.0,-1.5707963267948966
31,32,0.0,0.0,0.0,0.0
31,33,0.0,0.0,0.0,0.0
31,34,0.0,0.0,0.0,0.0
31,35,0.0,0.0,0.0,0.0
31,36,0.0,0.0,0.0,0.0
31,37,0.0,0.0,0.0,0.0
31,38,0.0,0.0,0.0,0.0
31,39,0.0,0.0,0.0,0.0
32,1,0.0,0.0,0.0,0.0
32,2,0.0,0.0,0.0,0.0
32,3,0.0,0.0,0.0,0.0
32,4,0.0,0.0,0.0,0.0
32,5,0.0,0.0,0.0,0.0
32,6,0.0,0.0,0.0,0.0
32,7,0.0,0.0,0.0,0.0
32,8,0.0,0.0,0.0,0.0
32,9,0.0,0.0,0.0,0.0
32,10,23.364485981308405,40.46847681235695,46.72897196261682,1.0471975511965979
32,11,0.0,0.0,0.0,0.0
32,12,0.0,0.0,0.0,0.0
32,13,0.0,0.0,0.0,0.0
32,14,0.0,0.0,0.0,0.0
32,15,0.0,0.0,0.0,0.0
32,16,0.0,0.0,0.0,0.0
32,17,0.0,0.0,0.0,0.0
32,18,0.0,0.0,0.0,0.0
32,19,0.0,0.0,0.0,0.0
32,20,0.0,0.0,0.0,0.0
32,21,0.0,0.0,0.0,0.0
32,22,0.0,0.0,0.0,0.0
32,23,0.0,0.0,0.0,0.0
32,24,0.0,0.0,0.0,0.0
32,25,0.0,0.0,0.0,0.0
32,26,0.0,0.0,0.0,0.0
32,27,0.0,0.0,0.0,0.0
32,28,0.0,0.0,0.0,0.0
32,29,0.0,0.0,0.0,0.0
32,30,0.0,0.0,0.0,0.0
32,31,0.0,0.0,0.0,0.0
32,32,0.0,-50.0,50.0,-1.5707963267948966
32,33,0.0,0.0,0.0,0.0
32,34,0.0,0.0,0.0,0.0
32,35,0.0,0.0,0.0,0.0
32,36,0.0,0.0,0.0,0.0
32,37,0.0,0.0,0.0,0.0
32,38,0.0,0.0,0.0,0.0
32,39,0.0,0.0,0.0,0.0
33,1,0.0,0.0,0.0,0.0
33,2,0.0,0.0,0.0,0.0
33,3,0.0,0.0,0.0,0.0
33,4,0.0,0.0,0.0,0.0
33,5,0.0,0.0,0.0,0.0
33,6,0.0,0.0,0.0,0.0
33,7,0.0,0.0,0.0,0.0
33,8,0.0,0.0,0.0,0.0
33,9,0.0,0.0,0.0,0.0
33,10,0.0,0.0,0.0,0.0
33,11,0.0,0.0,0.0,0.0
33,12,0.0,0.0,0.0,0.0
33,13,0.0,0.0,0.0,0.0
33,14,0.0,0.0,0.0,0.0
33,15,0.0,0.0,0.0,0.0
33,16,0.0,0.0,0.0,0.0
33,17,0.0,0.0,0.0,0.0
33,18,0.0,0.0,0.0,0.0
33,19,30.025010356298367,58.477960809616036,65.73563072905601,1.0964534531809216
33,20,0.0,0.0,0.0,0.0
33,21,0.0,0.0,0.0,0.0
33,22,0.0,0.0,0.0,0.0
33,23,0.0,0.0,0.0,0.0
33,24,0.0,0.0,0.0,0.0
33,25,0.0,0.0,0.0,0.0
33,26,0.0,0.0,0.0,0.0
33,27,0.0,0.0,0.0,0.0
33,28,0.0,0.0,0.0,0.0
33,29,0.0,0.0,0.0,0.0
33,30,0.0,0.0,0.0,0.0
33,31,0.0,0.0,0.0,0.0
33,32,0.0,0.0,0.0,0.0
33,33,3.463117795478157,-70.25181813684262,70.33712488008993,-1.521540424810573
33,34,0.0,0.0,0.0,0.0
33,35,0.0,0.0,0.0,0.0
33,36,0.0,0.0,0.0,0.0
33,37,0.0,0.0,0.0,0.0
33,38,0.0,0.0,0.0,0.0
33,39,0.0,0.0,0.0,0.0
34,1,0.0,0.0,0.0,0.0
34,2,0.0,0.0,0.0,0.0
34,3,0.0,0.0,0.0,0.0
34,4,0.0,0.0,0.0,0.0
34,5,0.0,0.0,0.0,0.0
34,6,0.0,0.0,0.0,0.0
34,7,0.0,0.0,0.0,0.0
34,8,0.0,0.0,0.0,0.0
34,9,0.0,0.0,0.0,0.0
34,10,0.0,0.0,0.0,0.0
34,11,0.0,0.0,0.0,0.0
34,12,0.0,0.0,0.0,0.0
34,13,0.0,0.0,0.0,0.0
34,14,0.0,0.0,0.0,0.0
34,15,0.0,0.0,0.0,0.0
34,16,0.0,0.0,0.0,0.0
34,17,0.0,0.0,0.0,0.0
34,18,0.0,0.0,0.0,0.0
34,19,0.0,0.0,0.0,0.0
34,20,25.083131276026325,48.93752864751671,54.99131917618352,1.0971559469185406
34,21,0.0,0.0,0.0,0.0
34,22,0.0,0.0,0.0,0.0
34,23,0.0,0.0,0.0,0.0
34,24,0.0,0.0,0.0,0.0
34,25,0.0,0.0,0.0,0.0
34,26,0.0,0.0,0.0,0.0
34,27,0.0,0.0,0.0,0.0
34,28,0.0,0.0,0.0,0.0
34,29,0.0,0.0,0.0,0.0
34,30,0.0,0.0,0.0,0.0
34,31,0.0,0.0,0.0,0.0
34,32,0.0,0.0,0.0,0.0
34,33,0.0,0.0,0.0,0.0
34,34,2.7708506511499036,-55.41701302299806,55.48624104876915,-1.5208379310729538
34,35,0.0,0.0,0.0,0.0
34,36,0.0,0.0,0.0,0.0
34,37,0.0,0.0,0.0,0.0
34,38,0.0,0.0,0.0,0.0
34,39,0.0,0.0,0.0,0.0
35,1,0.0,0.0,0.0,0.0
35,2,0.0,0.0,0.0,0.0
35,3,0.0,0.0,0.0,0.0
35,4,0.0,0.0,0.0,0.0
35,5,0.0,0.0,0.0,0.0
35,6,0.0,0.0,0.0,0.0
35,7,0.0,0.0,0.0,0.0
35,8,0.0,0.0,0.0,0.0
35,9,0.0,0.0,0.0,0.0
35,10,0.0,0.0,0.0,0.0
35,11,0.0,0.0,0.0,0.0
35,12,0.0,0.0,0.0,0.0
35,13,0.0,0.0,0.0,0.0
35,14,0.0,0.0,0.0,0.0
35,15,0.0,0.0,0.0,0.0
35,16,0.0,0.0,0.0,0.0
35,17,0.0,0.0,0.0,0.0
35,18,0.0,0.0,0.0,0.0
35,19,0.0,0.0,0.0,0.0
35,20,0.0,0.0,0.0,0.0
35,21,0.0,0.0,0.0,0.0
35,22,34.112229234180454,59.08411419303693,68.22445846836092,1.0471975511965979
35,23,0.0,0.0,0.0,0.0
35,24,0.0,0.0,0.0,0.0
35,25,0.0,0.0,0.0,0.0
35,26,0.0,0.0,0.0,0.0
35,27,0.0,0.0,0.0,0.0
35,28,0.0,0.0,0.0,0.0
35,29,0.0,0.0,0.0,0.0
35,30,0.0,0.0,0.0,0.0
35,31,0.0,0.0,0.0,0.0
35,32,0.0,0.0,0.0,0.0
35,33,0.0,0.0,0.0,0.0
35,34,0.0,0.0,0.0,0.0
35,35,0.0,-69.93006993006993,69.93006993006993,-1.5707963267948966
35,36,0.0,0.0,0.0,0.0
35,37,0.0,0.0,0.0,0.0
35,38,0.0,0.0,0.0,0.0
35,39,0.0,0.0,0.0,0.0
36,1,0.0,0.0,0.0,0.0
36,2,0.0,0.0,0.0,0.0
36,3,0.0,0.0,0.0,0.0
36,4,0.0,0.0,0.0,0.0
36,5,0.0,0.0,0.0,0.0
36,6,0.0,0.0,0.0,0.0
36,7,0.0,0.0,0.0,0.0
36,8,0.0,0.0,0.0,0.0
36,9,0.0,0.0,0.0,0.0
36,10,0.0,0.0,0.0,0.0
36,11,0.0,0.0,0.0,0.0
36,12,0.0,0.0,0.0,0.0
36,13,0.0,0.0,0.0,0.0
36,14,0.0,0.0,0.0,0.0
36,15,0.0,0.0,0.0,0.0
36,16,0.0,0.0,0.0,0.0
36,17,0.0,0.0,0.0,0.0
36,18,0.0,0.0,0.0,0.0
36,19,0.0,0.0,0.0,0.0
36,20,0.0,0.0,0.0,0.0
36,21,0.0,0.0,0.0,0.0
36,22,0.0,0.0,0.0,0.0
36,23,17.791062300676643,32.166210843190335,36.75849585871453,1.065577834024993
36,24,0.0,0.0,0.0,0.0
36,25,0.0,0.0,0.0,0.0
36,26,0.0,0.0,0.0,0.0
36,27,0.0,0.0,0.0,0.0
36,28,0.0,0.0,0.0,0.0
36,29,0.0,0.0,0.0,0.0
36,30,0.0,0.0,0.0,0.0
36,31,0.0,0.0,0.0,0.0
36,32,0.0,0.0,0.0,0.0
36,33,0.0,0.0,0.0,0.0
36,34,0.0,0.0,0.0,0.0
36,35,0.0,0.0,0.0,0.0
36,36,0.6755935088975666,-36.75228688402762,36.758495858714525,-1.5524160439665016
36,37,0.0,0.0,0.0,0.0
36,38,0.0,0.0,0.0,0.0
36,39,0.0,0.0,0.0,0.0
37,1,0.0,0.0,0.0,0.0
37,2,0.0,0.0,0.0,0.0
37,3,0.0,0.0,0.0,0.0
37,4,0.0,0.0,0.0,0.0
37,5,0.0,0.0,0.0,0.0
37,6,0.0,0.0,0.0,0.0
37,7,0.0,0.0,0.0,0.0
37,8,0.0,0.0,0.0,0.0
37,9,0.0,0.0,0.0,0.0
37,10,0.0,0.0,0.0,0.0
37,11,0.0,0.0,0.0,0.0
37,12,0.0,0.0,0.0,0.0
37,13,0.0,0.0,0.0,0.0
37,14,0.0,0.0,0.0,0.0
37,15,0.0,0.0,0.0,0.0
37,16,0.0,0.0,0.0,0.0
37,17,0.0,0.0,0.0,0.0
37,18,0.0,0.0,0.0,0.0
37,19,0.0,0.0,0.0,0.0
37,20,0.0,0.0,0.0,0.0
37,21,0.0,0.0,0.0,0.0
37,22,0.0,0.0,0.0,0.0
37,23,0.0,0.0,0.0,0.0
37,24,0.0,0.0,0.0,0.0
37,25,20.070797383875696,36.937297904773864,42.03808849282521,1.0730538565558576
37,26,0.0,0.0,0.0,0.0
37,27,0.0,0.0,0.0,0.0
37,28,0.0,0.0,0.0,0.0
37,29,0.0,0.0,0.0,0.0
37,30,0.0,0.0,0.0,0.0
37,31,0.0,0.0,0.0,0.0
37,32,0.0,0.0,0.0,0.0
37,33,0.0,0.0,0.0,0.0
37,34,0.0,0.0,0.0,0.0
37,35,0.0,0.0,0.0,0.0
37,36,0.0,0.0,0.0,0.0
37,37,1.1139992573338284,-43.07463795024137,43.08904070514583,-1.5449400214356368
37,38,0.0,0.0,0.0,0.0
37,39,0.0,0.0,0.0,0.0
38,1,0.0,0.0,0.0,0.0
38,2,0.0,0.0,0.0,0.0
38,3,0.0,0.0,0.0,0.0
38,4,0.0,0.0,0.0,0.0
38,5,0.0,0.0,0.0,0.0
38,6,0.0,0.0,0.0,0.0
38,7,0.0,0.0,0.0,0.0
38,8,0.0,0.0,0.0,0.0
38,9,0.0,0.0,0.0,0.0
38,10,0.0,0.0,0.0,0.0
38,11,0.0,0.0,0.0,0.0
38,12,0.0,0.0,0.0,0.0
38,13,0.0,0.0,0.0,0.0
38,14,0.0,0.0,0.0,0.0
38,15,0.0,0.0,0.0,0.0
38,16,0.0,0.0,0.0,0.0
38,17,0.0,0.0,0.0,0.0
38,18,0.0,0.0,0.0,0.0
38,19,0.0,0.0,0.0,0.0
38,20,0.0,0.0,0.0,0.0
38,21,0.0,0.0,0.0,0.0
38,22,0.0,0.0,0.0,0.0
38,23,0.0,0.0,0.0,0.0
38,24,0.0,0.0,0.0,0.0
38,25,0.0,0.0,0.0,0.0
38,26,0.0,0.0,0.0,0.0
38,27,0.0,0.0,0.0,0.0
38,28,0.0,0.0,0.0,0.0
38,29,28.41735176718292,55.61773810090862,62.45701460141268,1.0984347186000167
38,30,0.0,0.0,0.0,0.0
38,31,0.0,0.0,0.0,0.0
38,32,0.0,0.0,0.0,0.0
38,33,0.0,0.0,0.0,0.0
38,34,0.0,0.0,0.0,0.0
38,35,0.0,0.0,0.0,0.0
38,36,0.0,0.0,0.0,0.0
38,37,0.0,0.0,0.0,0.0
38,38,3.278688524590164,-63.9344262295082,64.01843996644799,-1.519559159391478
38,39,0.0,0.0,0.0,0.0
39,1,-1.5974313174440682,40.061353935172576,40.093189769998574,1.61064983489032
39,2,0.0,0.0,0.0,0.0
39,3,0.0,0.0,0.0,0.0
39,4,0.0,0.0,0.0,0.0
39,5,0.0,0.0,0.0,0.0
39,6,0.0,0.0,0.0,0.0
39,7,0.0,0.0,0.0,0.0
39,8,0.0,0.0,0.0,0.0
39,9,-1.597414110462619,40.1367820992028,40.16855746873656,1.610574590102832
39,10,0.0,0.0,0.0,0.0
39,11,0.0,0.0,0.0,0.0
39,12,0.0,0.0,0.0,0.0
39,13,0.0,0.0,0.0,0.0
39,14,0.0,0.0,0.0,0.0
39,15,0.0,0.0,0.0,0.0
39,16,0.0,0.0,0.0,0.0
39,17,0.0,0.0,0.0,0.0
39,18,0.0,0.0,0.0,0.0
39,19,0.0,0.0,0.0,0.0
39,20,0.0,0.0,0.0,0.0
39,21,0.0,0.0,0.0,0.0
39,22,0.0,0.0,0.0,0.0
39,23,0.0,0.0,0.0,0.0
39,24,0.0,0.0,0.0,0.0
39,25,0.0,0.0,0.0,0.0
39,26,0.0,0.0,0.0,0.0
39,27,0.0,0.0,0.0,0.0
39,28,0.0,0.0,0.0,0.0
39,29,0.0,0.0,0.0,0.0
39,30,0.0,0.0,0.0,0.0
39,31,0.0,0.0,0.0,0.0
39,32,0.0,0.0,0.0,0.0
39,33,0.0,0.0,0.0,0.0
39,34,0.0,0.0,0.0,0.0
39,35,0.0,0.0,0.0,0.0
39,36,0.0,0.0,0.0,0.0
39,37,0.0,0.0,0.0,0.0
39,38,0.0,0.0,0.0,0.0
39,39,3.194845427906687,-79.22104393646737,79.28543901431024,-1.5304899263710305
